Version 4.1
SHEET 1 1708 1484
WIRE 336 -624 288 -624
WIRE 448 -624 400 -624
WIRE 288 -528 288 -624
WIRE 320 -528 288 -528
WIRE 448 -528 448 -624
WIRE 448 -528 400 -528
WIRE 112 -400 0 -400
WIRE 224 -400 192 -400
WIRE 288 -400 288 -528
WIRE 320 -400 288 -400
WIRE 448 -384 448 -528
WIRE 448 -384 384 -384
WIRE 528 -384 448 -384
WIRE 688 -384 608 -384
WIRE 320 -368 288 -368
WIRE 288 -320 288 -368
WIRE 560 -304 560 -336
WIRE 336 -240 288 -240
WIRE 448 -240 400 -240
WIRE 288 -144 288 -240
WIRE 320 -144 288 -144
WIRE 448 -144 448 -240
WIRE 448 -144 400 -144
WIRE 0 -16 0 -400
WIRE 112 -16 0 -16
WIRE 224 -16 192 -16
WIRE 288 -16 288 -144
WIRE 320 -16 288 -16
WIRE 448 0 448 -144
WIRE 448 0 384 0
WIRE 528 0 448 0
WIRE 688 0 688 -384
WIRE 688 0 608 0
WIRE 320 16 288 16
WIRE 288 64 288 16
WIRE 560 80 560 48
WIRE 336 144 288 144
WIRE 448 144 400 144
WIRE 288 240 288 144
WIRE 320 240 288 240
WIRE 448 240 448 144
WIRE 448 240 400 240
WIRE 880 256 832 256
WIRE 1056 256 960 256
WIRE -192 272 -448 272
WIRE 1424 288 1168 288
WIRE -448 352 -448 272
WIRE -384 352 -448 352
WIRE -192 368 -192 272
WIRE -192 368 -320 368
WIRE 0 368 0 -16
WIRE 0 368 -192 368
WIRE 112 368 0 368
WIRE 224 368 192 368
WIRE 288 368 288 240
WIRE 320 368 288 368
WIRE 1168 368 1168 288
WIRE 1232 368 1168 368
WIRE -384 384 -992 384
WIRE 448 384 448 240
WIRE 448 384 384 384
WIRE 544 384 448 384
WIRE 688 384 688 0
WIRE 688 384 624 384
WIRE 832 384 832 256
WIRE 832 384 688 384
WIRE 880 384 832 384
WIRE 1424 384 1424 288
WIRE 1424 384 1296 384
WIRE 1616 384 1424 384
WIRE 320 400 288 400
WIRE 1056 400 1056 256
WIRE 1056 400 944 400
WIRE 1232 400 1056 400
WIRE -992 416 -992 384
WIRE 880 416 816 416
WIRE 288 448 288 400
WIRE 816 448 816 416
WIRE 576 464 576 432
WIRE 336 496 288 496
WIRE 448 496 400 496
WIRE -992 544 -992 496
WIRE 288 592 288 496
WIRE 320 592 288 592
WIRE 448 592 448 496
WIRE 448 592 400 592
WIRE -880 704 -880 688
WIRE 0 720 0 368
WIRE 112 720 0 720
WIRE 224 720 192 720
WIRE 288 720 288 592
WIRE 320 720 288 720
WIRE 448 736 448 592
WIRE 448 736 384 736
WIRE 544 736 448 736
WIRE 688 736 688 384
WIRE 688 736 624 736
WIRE 320 752 288 752
WIRE 288 800 288 752
WIRE 576 816 576 784
WIRE -880 848 -880 784
WIRE -880 848 -1024 848
WIRE 336 864 288 864
WIRE 448 864 400 864
WIRE -1024 880 -1024 848
WIRE -880 896 -880 848
WIRE 288 960 288 864
WIRE 320 960 288 960
WIRE 448 960 448 864
WIRE 448 960 400 960
WIRE -880 992 -880 976
WIRE 0 1088 0 720
WIRE 112 1088 0 1088
WIRE 224 1088 192 1088
WIRE 288 1088 288 960
WIRE 320 1088 288 1088
WIRE 448 1104 448 960
WIRE 448 1104 384 1104
WIRE 528 1104 448 1104
WIRE 688 1104 688 736
WIRE 688 1104 608 1104
WIRE 320 1120 288 1120
WIRE 288 1168 288 1120
WIRE 560 1184 560 1152
FLAG 288 64 0
FLAG -1024 880 0
FLAG -880 688 np
FLAG -880 992 nn
FLAG 352 -32 np
FLAG 352 32 nn
FLAG 288 448 0
FLAG 352 352 np
FLAG 352 416 nn
FLAG 288 -320 0
FLAG 352 -416 np
FLAG 352 -352 nn
FLAG 288 800 0
FLAG 352 704 np
FLAG 352 768 nn
FLAG 288 1168 0
FLAG 352 1072 np
FLAG 352 1136 nn
FLAG 560 -304 0
FLAG 560 80 0
FLAG 912 368 np
FLAG 912 432 nn
FLAG 816 448 0
FLAG 576 464 0
FLAG 576 816 0
FLAG 560 1184 0
FLAG 1264 352 np
FLAG 1264 416 nn
FLAG -992 544 0
FLAG -352 336 np
FLAG -352 400 nn
SYMBOL OpAmps\\LT1022 352 -64 R0
SYMATTR InstName U1
SYMBOL voltage -880 688 R0
WINDOW 123 0 0 Left 0
WINDOW 39 0 0 Left 0
SYMATTR InstName V1
SYMATTR Value 15
SYMBOL voltage -880 880 R0
WINDOW 123 0 0 Left 0
WINDOW 39 0 0 Left 0
SYMATTR InstName V2
SYMATTR Value 15
SYMBOL res 416 -160 R90
WINDOW 0 0 56 VBottom 2
WINDOW 3 32 56 VTop 2
SYMATTR InstName R1
SYMATTR Value 20k
SYMBOL res 208 -32 R90
WINDOW 0 0 56 VBottom 2
WINDOW 3 32 56 VTop 2
SYMATTR InstName R2
SYMATTR Value 10k
SYMBOL cap 288 -32 R90
WINDOW 0 0 32 VBottom 2
WINDOW 3 32 32 VTop 2
SYMATTR InstName C1
SYMATTR Value 64nf
SYMBOL cap 400 -256 R90
WINDOW 0 0 32 VBottom 2
WINDOW 3 32 32 VTop 2
SYMATTR InstName C2
SYMATTR Value 32nf
SYMBOL OpAmps\\LT1022 352 320 R0
SYMATTR InstName U2
SYMBOL res 416 224 R90
WINDOW 0 0 56 VBottom 2
WINDOW 3 32 56 VTop 2
SYMATTR InstName R3
SYMATTR Value 20k
SYMBOL res 208 352 R90
WINDOW 0 0 56 VBottom 2
WINDOW 3 32 56 VTop 2
SYMATTR InstName R4
SYMATTR Value 10k
SYMBOL cap 288 352 R90
WINDOW 0 0 32 VBottom 2
WINDOW 3 32 32 VTop 2
SYMATTR InstName C3
SYMATTR Value 16nf
SYMBOL cap 400 128 R90
WINDOW 0 0 32 VBottom 2
WINDOW 3 32 32 VTop 2
SYMATTR InstName C4
SYMATTR Value 8nf
SYMBOL OpAmps\\LT1022 352 -448 R0
SYMATTR InstName U3
SYMBOL res 416 -544 R90
WINDOW 0 0 56 VBottom 2
WINDOW 3 32 56 VTop 2
SYMATTR InstName R5
SYMATTR Value 200k
SYMBOL res 208 -416 R90
WINDOW 0 0 56 VBottom 2
WINDOW 3 32 56 VTop 2
SYMATTR InstName R6
SYMATTR Value 100k
SYMBOL cap 288 -416 R90
WINDOW 0 0 32 VBottom 2
WINDOW 3 32 32 VTop 2
SYMATTR InstName C5
SYMATTR Value 26.5nf
SYMBOL cap 400 -640 R90
WINDOW 0 0 32 VBottom 2
WINDOW 3 32 32 VTop 2
SYMATTR InstName C6
SYMATTR Value 13.3nf
SYMBOL OpAmps\\LT1022 352 672 R0
SYMATTR InstName U4
SYMBOL res 416 576 R90
WINDOW 0 0 56 VBottom 2
WINDOW 3 32 56 VTop 2
SYMATTR InstName R7
SYMATTR Value 5k
SYMBOL res 208 704 R90
WINDOW 0 0 56 VBottom 2
WINDOW 3 32 56 VTop 2
SYMATTR InstName R8
SYMATTR Value 2.5k
SYMBOL cap 288 704 R90
WINDOW 0 0 32 VBottom 2
WINDOW 3 32 32 VTop 2
SYMATTR InstName C7
SYMATTR Value 16nf
SYMBOL cap 400 480 R90
WINDOW 0 0 32 VBottom 2
WINDOW 3 32 32 VTop 2
SYMATTR InstName C8
SYMATTR Value 8nf
SYMBOL OpAmps\\LT1022 352 1040 R0
SYMATTR InstName U5
SYMBOL res 416 944 R90
WINDOW 0 0 56 VBottom 2
WINDOW 3 32 56 VTop 2
SYMATTR InstName R9
SYMATTR Value 5k
SYMBOL res 208 1072 R90
WINDOW 0 0 56 VBottom 2
WINDOW 3 32 56 VTop 2
SYMATTR InstName R10
SYMATTR Value 2.5k
SYMBOL cap 288 1072 R90
WINDOW 0 0 32 VBottom 2
WINDOW 3 32 32 VTop 2
SYMATTR InstName C9
SYMATTR Value 4nf
SYMBOL cap 400 848 R90
WINDOW 0 0 32 VBottom 2
WINDOW 3 32 32 VTop 2
SYMATTR InstName C10
SYMATTR Value 2nf
SYMBOL pot 624 -400 R90
WINDOW 3 36 88 Invisible 0
SYMATTR InstName U7
SYMBOL pot 624 -16 R90
WINDOW 3 36 88 Invisible 0
SYMATTR InstName U9
SYMBOL OpAmps\\LT1022 912 336 R0
SYMATTR InstName U10
SYMBOL res 976 240 R90
WINDOW 0 0 56 VBottom 2
WINDOW 3 32 56 VTop 2
SYMATTR InstName R13
SYMATTR Value 3.5k
SYMBOL pot 640 368 R90
WINDOW 3 36 88 Invisible 0
SYMATTR InstName U11
SYMBOL pot 640 720 R90
WINDOW 3 36 88 Invisible 0
SYMATTR InstName U13
SYMBOL pot 624 1088 R90
WINDOW 3 36 88 Invisible 0
SYMATTR InstName U15
SYMBOL OpAmps\\LT1022 1264 320 R0
SYMATTR InstName U8
SYMBOL voltage -992 400 R0
WINDOW 123 24 124 Left 2
WINDOW 39 0 0 Left 0
SYMATTR Value2 AC 1
SYMATTR InstName V3
SYMATTR Value ""
SYMBOL OpAmps\\LT1022 -352 304 R0
SYMATTR InstName U6
TEXT 920 952 Left 2 !.ac oct 100 10 30k
TEXT 112 -296 Left 2 ;SUB_BASS
TEXT 136 64 Left 2 ;BASS
TEXT 128 448 Left 2 ;MIDS
TEXT 112 784 Left 2 ;PRESENSE
TEXT 128 1144 Left 2 ;TREBLE
TEXT 920 992 Left 2 !.subckt pot 1 2 3\n.param w=limit(wiper, 0.001, 0.999)\nR1 1 2 {Rtot*(1-w)}\nR2 2 3 {Rtot*w}\n.ends
TEXT -872 360 Left 2 ;INPUT
TEXT 1608 368 Left 2 ;OUTPUT
TEXT 1256 480 Left 2 ;OUTPUT BUFFER
TEXT 856 512 Left 2 ;SUMMING STAGE
TEXT -360 464 Left 2 ;INTPUT BUFFER
